@<TRIPOS>MOLECULE
methane-in-box.pdb
 137 0 0 0 0
SMALL
GASTEIGER
Energy = 0

@<TRIPOS>ATOM
      1 c           0.0040    0.0060   -0.0030 c       1  mth         0.0000
      2 h1          1.0940    0.0060   -0.0030 h1      1  mth         0.0000
      3 h2         -0.3590    1.0340   -0.0030 h2      1  mth         0.0000
      4 h3         -0.3590   -0.5080    0.8870 h3      1  mth         0.0000
      5 h4         -0.3590   -0.5080   -0.8930 h4      1  mth         0.0000
      6 o00        -5.0260   -5.4830   -1.6720 o0   1054  t3p         0.0000
      7 h01        -4.5280   -6.1890   -2.0850 h0   1054  t3p         0.0000
      8 h02        -4.3820   -4.7910   -1.5220 h0   1054  t3p         0.0000
      9 o00         0.8850    2.2120    3.3900 o0   1034  t3p         0.0000
     10 h01         1.1110    2.9570    2.8330 h0   1034  t3p         0.0000
     11 h02         0.2290    2.5570    3.9970 h0   1034  t3p         0.0000
     12 o00        -3.4210   -0.1180   -1.7280 o0    786  t3p         0.0000
     13 h01        -2.6500    0.3900   -1.9820 h0    786  t3p         0.0000
     14 h02        -3.1690   -1.0280   -1.8830 h0    786  t3p         0.0000
     15 o00         1.4640    4.5150    1.7440 o0    654  t3p         0.0000
     16 h01         0.8140    5.2090    1.8560 h0    654  t3p         0.0000
     17 h02         1.6510    4.5130    0.8040 h0    654  t3p         0.0000
     18 o00        -4.1610    0.3520    3.1300 o0    826  t3p         0.0000
     19 h01        -3.7740    0.8730    2.4260 h0    826  t3p         0.0000
     20 h02        -3.4760    0.3050    3.7960 h0    826  t3p         0.0000
     21 o00         1.5840    2.9290   -4.4670 o0   1071  t3p         0.0000
     22 h01         0.7670    3.3020   -4.7960 h0   1071  t3p         0.0000
     23 h02         2.1000    2.7500   -5.2530 h0   1071  t3p         0.0000
     24 o00        -1.0270   -2.8640   -4.2700 o0   1009  t3p         0.0000
     25 h01        -1.9380   -2.6860   -4.0350 h0   1009  t3p         0.0000
     26 h02        -0.6040   -2.0050   -4.2560 h0   1009  t3p         0.0000
     27 o00         4.1470    1.8110   -3.8320 o0    820  t3p         0.0000
     28 h01         4.2120    0.9630   -3.3920 h0    820  t3p         0.0000
     29 h02         3.2840    2.1440   -3.5840 h0    820  t3p         0.0000
     30 o00         3.2800    4.7330   -0.9640 o0    956  t3p         0.0000
     31 h01         3.1170    3.9420   -1.4760 h0    956  t3p         0.0000
     32 h02         4.2300    4.8540   -1.0040 h0    956  t3p         0.0000
     33 o00        -1.7710   -4.0260    3.7150 o0    957  t3p         0.0000
     34 h01        -1.6220   -4.8130    4.2390 h0    957  t3p         0.0000
     35 h02        -1.3680   -4.2210    2.8690 h0    957  t3p         0.0000
     36 o00         4.7740    0.2850   -1.5690 o0   1010  t3p         0.0000
     37 h01         5.6880    0.0160   -1.6660 h0   1010  t3p         0.0000
     38 h02         4.8150    1.0980   -1.0640 h0   1010  t3p         0.0000
     39 o00        -1.0780   -5.5980   -4.4540 o0    900  t3p         0.0000
     40 h01        -1.0640   -4.6550   -4.6160 h0    900  t3p         0.0000
     41 h02        -0.7450   -5.6940   -3.5620 h0    900  t3p         0.0000
     42 o00        -3.5720   -2.3350   -3.7340 o0    959  t3p         0.0000
     43 h01        -3.6700   -2.1910   -4.6760 h0    959  t3p         0.0000
     44 h02        -4.4670   -2.4600   -3.4170 h0    959  t3p         0.0000
     45 o00         4.2410   -0.9770    2.9290 o0    960  t3p         0.0000
     46 h01         3.6690   -0.4270    3.4660 h0    960  t3p         0.0000
     47 h02         5.1110   -0.5900    3.0340 h0    960  t3p         0.0000
     48 o00         4.5130    2.3840    0.2650 o0    665  t3p         0.0000
     49 h01         4.3740    3.3060    0.4820 h0    665  t3p         0.0000
     50 h02         3.7120    1.9460    0.5510 h0    665  t3p         0.0000
     51 o00        -1.9120    0.3870    5.0430 o0    934  t3p         0.0000
     52 h01        -1.0520    0.7930    4.9300 h0    934  t3p         0.0000
     53 h02        -1.7880   -0.2430    5.7530 h0    934  t3p         0.0000
     54 o00         2.3450    0.1080    4.5590 o0    696  t3p         0.0000
     55 h01         1.9750    0.8110    4.0250 h0    696  t3p         0.0000
     56 h02         1.6700   -0.5700    4.5670 h0    696  t3p         0.0000
     57 o00         0.4470   -1.9700    4.2270 o0    904  t3p         0.0000
     58 h01        -0.2370   -2.5200    4.6080 h0    904  t3p         0.0000
     59 h02         0.4020   -2.1500    3.2870 h0    904  t3p         0.0000
     60 o00         2.3610   -2.9480    2.0880 o0    922  t3p         0.0000
     61 h01         2.7160   -3.4440    2.8260 h0    922  t3p         0.0000
     62 h02         2.8990   -2.1580    2.0470 h0    922  t3p         0.0000
     63 o00        -1.4970    1.8420   -2.3050 o0    799  t3p         0.0000
     64 h01        -1.0510    2.6390   -2.0220 h0    799  t3p         0.0000
     65 h02        -2.3080    2.1500   -2.7100 h0    799  t3p         0.0000
     66 o00         0.0470   -4.0930    1.3760 o0    621  t3p         0.0000
     67 h01        -0.2360   -3.4210    0.7560 h0    621  t3p         0.0000
     68 h02         0.9010   -3.7920    1.6840 h0    621  t3p         0.0000
     69 o00         1.2550    2.4620   -1.7170 o0    872  t3p         0.0000
     70 h01         1.1420    1.5120   -1.6700 h0    872  t3p         0.0000
     71 h02         1.3000    2.6540   -2.6530 h0    872  t3p         0.0000
     72 o00         4.3590   -4.6640   -3.7320 o0    672  t3p         0.0000
     73 h01         3.9720   -3.7890   -3.7570 h0    672  t3p         0.0000
     74 h02         4.7900   -4.7110   -2.8800 h0    672  t3p         0.0000
     75 o00        -2.3200   -1.7370    1.8950 o0   1087  t3p         0.0000
     76 h01        -1.9840   -2.1220    2.7050 h0   1087  t3p         0.0000
     77 h02        -3.2710   -1.8270    1.9630 h0   1087  t3p         0.0000
     78 o00         4.3310    2.7510    4.1200 o0    674  t3p         0.0000
     79 h01         4.7140    2.1060    3.5260 h0    674  t3p         0.0000
     80 h02         4.6270    2.4830    4.9900 h0    674  t3p         0.0000
     81 o00         5.9070   -2.2460    1.1130 o0    675  t3p         0.0000
     82 h01         5.1330   -1.9760    1.6080 h0    675  t3p         0.0000
     83 h02         5.6340   -2.1940    0.1970 h0    675  t3p         0.0000
     84 o00        -3.0120   -3.6030   -0.9770 o0   1097  t3p         0.0000
     85 h01        -2.2060   -3.2230   -1.3260 h0   1097  t3p         0.0000
     86 h02        -2.8490   -3.6890   -0.0380 h0   1097  t3p         0.0000
     87 o00         3.7950   -1.9690   -4.8640 o0    803  t3p         0.0000
     88 h01         3.1350   -1.3120   -5.0870 h0    803  t3p         0.0000
     89 h02         4.0330   -2.3640   -5.7020 h0    803  t3p         0.0000
     90 o00        -2.7100    0.7280    0.8100 o0   1060  t3p         0.0000
     91 h01        -2.5260   -0.2040    0.9250 h0   1060  t3p         0.0000
     92 h02        -3.1020    0.7910   -0.0610 h0   1060  t3p         0.0000
     93 o00         2.2280   -3.4080   -1.4260 o0    965  t3p         0.0000
     94 h01         2.6990   -4.2340   -1.3170 h0    965  t3p         0.0000
     95 h02         1.3080   -3.6630   -1.5020 h0    965  t3p         0.0000
     96 o00         2.2300   -0.8640   -2.1690 o0    966  t3p         0.0000
     97 h01         3.1230   -0.5360   -2.0700 h0    966  t3p         0.0000
     98 h02         2.2990   -1.8030   -1.9940 h0    966  t3p         0.0000
     99 o00        -4.5110   -4.8200    1.4920 o0    911  t3p         0.0000
    100 h01        -4.5910   -3.8760    1.3570 h0    911  t3p         0.0000
    101 h02        -5.3910   -5.1030    1.7390 h0    911  t3p         0.0000
    102 o00        -0.0810   -0.0370   -3.6090 o0    967  t3p         0.0000
    103 h01         0.7060   -0.4780   -3.2880 h0    967  t3p         0.0000
    104 h02        -0.3430    0.5380   -2.8900 h0    967  t3p         0.0000
    105 o00        -1.6130    2.9990    1.9460 o0    727  t3p         0.0000
    106 h01        -1.7780    2.2100    1.4310 h0    727  t3p         0.0000
    107 h02        -1.1020    2.6960    2.6960 h0    727  t3p         0.0000
    108 o00        -0.3280   -3.7040   -1.8610 o0    968  t3p         0.0000
    109 h01        -0.4490   -3.4160   -2.7650 h0    968  t3p         0.0000
    110 h02        -0.5730   -4.6300   -1.8680 h0    968  t3p         0.0000
    111 o00        -4.0880   -2.8700    4.4700 o0    810  t3p         0.0000
    112 h01        -4.8390   -3.3430    4.1100 h0    810  t3p         0.0000
    113 h02        -3.3430   -3.4510    4.3180 h0    810  t3p         0.0000
    114 o00        -0.9040    2.9040   -5.4910 o0   1000  t3p         0.0000
    115 h01        -1.1720    3.7130   -5.0540 h0   1000  t3p         0.0000
    116 h02        -1.4680    2.2290   -5.1140 h0   1000  t3p         0.0000
    117 o00        -3.4790    4.2030    3.4430 o0    944  t3p         0.0000
    118 h01        -2.9720    3.5640    2.9450 h0    944  t3p         0.0000
    119 h02        -3.7580    4.8480    2.7930 h0    944  t3p         0.0000
    120 o00        -4.1070    2.6020   -3.2970 o0   1050  t3p         0.0000
    121 h01        -4.2180    3.3070   -3.9350 h0   1050  t3p         0.0000
    122 h02        -4.8890    2.0600   -3.3990 h0   1050  t3p         0.0000
    123 o00        -3.7960    4.8830   -4.8330 o0   1061  t3p         0.0000
    124 h01        -3.1360    5.5750   -4.7670 h0   1061  t3p         0.0000
    125 h02        -3.7820    4.6260   -5.7550 h0   1061  t3p         0.0000
    126 o00         4.1320    4.8120    2.1410 o0   1040  t3p         0.0000
    127 h01         4.2440    4.1890    2.8580 h0   1040  t3p         0.0000
    128 h02         3.1850    4.9310    2.0730 h0   1040  t3p         0.0000
    129 o00        -0.5490    4.6280   -1.8230 o0   1041  t3p         0.0000
    130 h01        -1.2510    4.4650   -1.1940 h0   1041  t3p         0.0000
    131 h02         0.1820    4.0950   -1.5110 h0   1041  t3p         0.0000
    132 o00         4.0990   -4.1910    4.2400 o0    949  t3p         0.0000
    133 h01         4.0100   -4.4230    5.1640 h0    949  t3p         0.0000
    134 h02         4.2880   -5.0190    3.8000 h0    949  t3p         0.0000
    135 o00        -2.7420    4.4050   -0.1150 o0    888  t3p         0.0000
    136 h01        -3.4990    4.8710    0.2400 h0    888  t3p         0.0000
    137 h02        -2.2730    4.0870    0.6570 h0    888  t3p         0.0000
@<TRIPOS>BOND

